CRYSTAL
PRIMVEC
     3.9298017612    0.0000000000    0.0000000000
     0.0000000000    3.9298017612    0.0000000000
     0.0000000000    0.0000000000    3.9298017612
PRIMCOORD
 5 1
 Sr      1.9649008806     1.9649008806     1.9649008806      0.0000000000     0.0000000000     0.0000000000
 Ti      0.0000000000     0.0000000000     0.0000000000      0.0000000000     0.0000000000     0.0000000000
  O      1.9649008806     0.0000000000     0.0000000000      0.0000000000     0.0000000000     0.0000000000
  O      0.0000000000     1.9649008806     0.0000000000      0.0000000000     0.0000000000     0.0000000000
  O      0.0000000000     0.0000000000     1.9649008806      0.0000000000     0.0000000000     0.0000000000
