CRYSTAL
PRIMVEC 1
     3.9439985152    0.0000000000    0.0000000000
     0.0000000000    3.9439985152    0.0000000000
     0.0000000000    0.0000000000   78.1439689083
 PRIMCOORD
75 1
   Ba       1.9719992576     1.9719992576    25.8510782796       0.0000000000     0.0000000000    -0.0032241300
   Ba       1.9719992576     1.9719992576    37.6930746221       0.0000000000     0.0000000000    -0.0030605600
   Ba       1.9719992576     1.9719992576    49.5350693870       0.0000000000     0.0000000000    -0.0029343900
   Ba       1.9719992576     1.9719992576    61.3770637575       0.0000000000     0.0000000000     0.0280091500
   Ba       1.9719992576     1.9719992576    21.5169039353       0.0000000000     0.0000000000     0.0022096900
   Ba       1.9719992576     1.9719992576    33.3589002778       0.0000000000     0.0000000000     0.0027873600
   Ba       1.9719992576     1.9719992576    45.2008950427       0.0000000000     0.0000000000     0.0029531000
   Ba       1.9719992576     1.9719992576    57.0428905964       0.0000000000     0.0000000000     0.0028430900
    Y       1.9719992576     1.9719992576    17.7629931334       0.0000000000     0.0000000000    -0.0193933900
    Y       1.9719992576     1.9719992576    29.6049886871       0.0000000000     0.0000000000    -0.0002338100
    Y       1.9719992576     1.9719992576    41.4469834520       0.0000000000     0.0000000000     0.0000999300
    Y       1.9719992576     1.9719992576    53.2889809777       0.0000000000     0.0000000000     0.0000651900
   Cu       0.0000000000     0.0000000000    23.6839911074       0.0000000000     0.0000000000     0.0021005200
   Cu       0.0000000000     0.0000000000    35.5259874499       0.0000000000     0.0000000000     0.0001119600
   Cu       0.0000000000     0.0000000000    47.3679822149       0.0000000000     0.0000000000    -0.0018866400
   Cu       0.0000000000     0.0000000000    59.2099765854       0.0000000000     0.0000000000     0.0064580600
   Cu       0.0000000000     0.0000000000    16.0376148637       0.0000000000     0.0000000000    -0.0181784600
   Cu       0.0000000000     0.0000000000    27.8796116007       0.0000000000     0.0000000000     0.0013214200
   Cu       0.0000000000     0.0000000000    39.7216071544       0.0000000000     0.0000000000     0.0001456400
   Cu       0.0000000000     0.0000000000    51.5636027081       0.0000000000     0.0000000000    -0.0002080700
   Cu       0.0000000000     0.0000000000    63.4055970786       0.0000000000     0.0000000000     0.0282804600
   Cu       0.0000000000     0.0000000000    19.4883717974       0.0000000000     0.0000000000    -0.0007394500
   Cu       0.0000000000     0.0000000000    31.3303673511       0.0000000000     0.0000000000     0.0006133300
   Cu       0.0000000000     0.0000000000    43.1723629048       0.0000000000     0.0000000000    -0.0013602100
   Cu       0.0000000000     0.0000000000    55.0143572753       0.0000000000     0.0000000000    -0.0007911600
    O       0.0000000000     0.0000000000    25.5692362017       0.0000000000     0.0000000000    -0.0002477000
    O       0.0000000000     0.0000000000    37.4112329386       0.0000000000     0.0000000000    -0.0005999200
    O       0.0000000000     0.0000000000    49.2532316475       0.0000000000     0.0000000000    -0.0005690500
    O       0.0000000000     0.0000000000    61.0952260180       0.0000000000     0.0000000000    -0.0065819800
    O       0.0000000000     0.0000000000    21.7987456188       0.0000000000     0.0000000000     0.0002939200
    O       0.0000000000     0.0000000000    33.6407423557       0.0000000000     0.0000000000     0.0005691300
    O       0.0000000000     0.0000000000    45.4827367262       0.0000000000     0.0000000000     0.0002976100
    O       0.0000000000     0.0000000000    57.3247314911       0.0000000000     0.0000000000    -0.0016749100
    O       1.9719992576     0.0000000000    16.2993220404       0.0000000000     0.0000000000     0.0165267100
    O       1.9719992576     0.0000000000    28.1413183829       0.0000000000     0.0000000000     0.0089071200
    O       1.9719992576     0.0000000000    39.9833151198       0.0000000000     0.0000000000     0.0088008600
    O       1.9719992576     0.0000000000    51.8253094904       0.0000000000     0.0000000000     0.0086609500
    O       1.9719992576     0.0000000000    63.6673038609       0.0000000000     0.0000000000    -0.0281741900
    O       1.9719992576     0.0000000000    19.2266638319       0.0000000000     0.0000000000    -0.0061494200
    O       1.9719992576     0.0000000000    31.0686601744       0.0000000000     0.0000000000    -0.0088484400
    O       1.9719992576     0.0000000000    42.9106549394       0.0000000000     0.0000000000    -0.0090186400
    O       1.9719992576     0.0000000000    54.7526493099       0.0000000000     0.0000000000    -0.0089677200
    O       0.0000000000     1.9719992576    16.3099799076       0.0000000000     0.0000000000     0.0135359100
    O       0.0000000000     1.9719992576    28.1519762501       0.0000000000     0.0000000000     0.0087920200
    O       0.0000000000     1.9719992576    39.9939729870       0.0000000000     0.0000000000     0.0086541000
    O       0.0000000000     1.9719992576    51.8359634136       0.0000000000     0.0000000000     0.0086323900
    O       0.0000000000     1.9719992576    63.6779581785       0.0000000000     0.0000000000    -0.0263993300
    O       0.0000000000     1.9719992576    19.2160055703       0.0000000000     0.0000000000    -0.0068164800
    O       0.0000000000     1.9719992576    31.0580023073       0.0000000000     0.0000000000    -0.0087158600
    O       0.0000000000     1.9719992576    42.8999966778       0.0000000000     0.0000000000    -0.0089133700
    O       0.0000000000     1.9719992576    54.7419914427       0.0000000000     0.0000000000    -0.0088270000
    O       0.0000000000     1.9719992576    23.6839911074       0.0000000000     0.0000000000     0.0001337800
    O       0.0000000000     1.9719992576    35.5259874499       0.0000000000     0.0000000000    -0.0000648200
    O       0.0000000000     1.9719992576    47.3679822149       0.0000000000     0.0000000000    -0.0002495500
    O       0.0000000000     1.9719992576    59.2099765854       0.0000000000     0.0000000000    -0.0041922900
   Sr       1.9719992576     1.9719992576     1.9719992576       0.0000000000     0.0000000000    -0.0183619600
   Sr       1.9719992576     1.9719992576     5.9159977727       0.0000000000     0.0000000000     0.0058536900
   Sr       1.9719992576     1.9719992576     9.8599962879       0.0000000000     0.0000000000     0.0060265400
   Sr       1.9719992576     1.9719992576    13.8039948031       0.0000000000     0.0000000000     0.0026369700
   Ti       0.0000000000     0.0000000000     0.0000000000       0.0000000000     0.0000000000     0.0846797800
   Ti       0.0000000000     0.0000000000     3.9439985152       0.0000000000     0.0000000000     0.0231697800
   Ti       0.0000000000     0.0000000000     7.8879970303       0.0000000000     0.0000000000     0.0216663900
   Ti       0.0000000000     0.0000000000    11.8319955455       0.0000000000     0.0000000000     0.0470447300
    O       1.9719992576     0.0000000000     0.0000000000       0.0000000000     0.0000000000    -0.0147597100
    O       1.9719992576     0.0000000000     3.9439985152       0.0000000000     0.0000000000    -0.0039689000
    O       1.9719992576     0.0000000000     7.8879970303       0.0000000000     0.0000000000    -0.0055196700
    O       1.9719992576     0.0000000000    11.8319955455       0.0000000000     0.0000000000    -0.0071497300
    O       0.0000000000     1.9719992576     0.0000000000       0.0000000000     0.0000000000    -0.0147001400
    O       0.0000000000     1.9719992576     3.9439985152       0.0000000000     0.0000000000    -0.0039735400
    O       0.0000000000     1.9719992576     7.8879970303       0.0000000000     0.0000000000    -0.0055220900
    O       0.0000000000     1.9719992576    11.8319955455       0.0000000000     0.0000000000    -0.0071237300
    O       0.0000000000     0.0000000000     1.9719992576       0.0000000000     0.0000000000    -0.0450249400
    O       0.0000000000     0.0000000000     5.9159977727       0.0000000000     0.0000000000    -0.0188728700
    O       0.0000000000     0.0000000000     9.8599962879       0.0000000000     0.0000000000    -0.0211993900
    O       0.0000000000     0.0000000000    13.8039948031       0.0000000000     0.0000000000     0.0003163800
