CRYSTAL
PRIMVEC
     3.9439985152    0.0000000000    0.0000000000
     0.0000000000    3.9439985152    0.0000000000
     0.0000000000    0.0000000000   78.1083480862
PRIMCOORD
 75 1
 Ba      1.9720000000     1.9720000000    25.8270781600      0.0000000000     0.0000000000    -0.0002861400
 Ba      1.9720000000     1.9720000000    37.6651695680      0.0000000000     0.0000000000    -0.0002939700
 Ba      1.9720000000     1.9720000000    49.5028724510      0.0000000000     0.0000000000    -0.0000956000
 Ba      1.9720000000     1.9720000000    61.4213168510      0.0000000000     0.0000000000     0.0021062400
 Ba      1.9720000000     1.9720000000    21.5087091530      0.0000000000     0.0000000000    -0.0009044900
 Ba      1.9720000000     1.9720000000    33.3549748820      0.0000000000     0.0000000000     0.0001595500
 Ba      1.9720000000     1.9720000000    45.1915740820      0.0000000000     0.0000000000     0.0001939000
 Ba      1.9720000000     1.9720000000    57.0238157690      0.0000000000     0.0000000000    -0.0028961700
  Y      1.9720000000     1.9720000000    17.7120343120      0.0000000000     0.0000000000    -0.0000899600
  Y      1.9720000000     1.9720000000    29.5914764940      0.0000000000     0.0000000000    -0.0000668300
  Y      1.9720000000     1.9720000000    41.4280820620      0.0000000000     0.0000000000    -0.0003085200
  Y      1.9720000000     1.9720000000    53.2662041530      0.0000000000     0.0000000000    -0.0004397100
 Cu      0.0000000000     0.0000000000    23.6727238300      0.0000000000     0.0000000000     0.0004578300
 Cu      0.0000000000     0.0000000000    35.5097053190      0.0000000000     0.0000000000     0.0001971400
 Cu      0.0000000000     0.0000000000    47.3462688780      0.0000000000     0.0000000000    -0.0013389600
 Cu      0.0000000000     0.0000000000    59.1513576940      0.0000000000     0.0000000000    -0.0033797800
 Cu      0.0000000000     0.0000000000    16.0172602180      0.0000000000     0.0000000000     0.0010861500
 Cu      0.0000000000     0.0000000000    27.8764691960      0.0000000000     0.0000000000     0.0011988400
 Cu      0.0000000000     0.0000000000    39.7139668880      0.0000000000     0.0000000000     0.0040219500
 Cu      0.0000000000     0.0000000000    51.5495498250      0.0000000000     0.0000000000     0.0019377500
 Cu      0.0000000000     0.0000000000    63.5050966020      0.0000000000     0.0000000000     0.0059853400
 Cu      0.0000000000     0.0000000000    19.4679752420      0.0000000000     0.0000000000    -0.0068734500
 Cu      0.0000000000     0.0000000000    31.3036501310      0.0000000000     0.0000000000    -0.0030136000
 Cu      0.0000000000     0.0000000000    43.1400817890      0.0000000000     0.0000000000    -0.0004463900
 Cu      0.0000000000     0.0000000000    54.9847340440      0.0000000000     0.0000000000    -0.0028926900
  O      0.0000000000     0.0000000000    25.5603153030      0.0000000000     0.0000000000    -0.0000455200
  O      0.0000000000     0.0000000000    37.3968076200      0.0000000000     0.0000000000    -0.0000187600
  O      0.0000000000     0.0000000000    49.2332216330      0.0000000000     0.0000000000    -0.0003355700
  O      0.0000000000     0.0000000000    60.9609206510      0.0000000000     0.0000000000    -0.0054222000
  O      0.0000000000     0.0000000000    21.7857022400      0.0000000000     0.0000000000    -0.0001148900
  O      0.0000000000     0.0000000000    33.6225865120      0.0000000000     0.0000000000     0.0001661700
  O      0.0000000000     0.0000000000    45.4592107470      0.0000000000     0.0000000000     0.0001865400
  O      0.0000000000     0.0000000000    57.2698753070      0.0000000000     0.0000000000    -0.0032509000
  O      1.9720000000     0.0000000000    16.3282540610      0.0000000000     0.0000000000    -0.0006152200
  O      1.9720000000     0.0000000000    28.1589410030      0.0000000000     0.0000000000    -0.0000672100
  O      1.9720000000     0.0000000000    39.9944415290      0.0000000000     0.0000000000     0.0003210800
  O      1.9720000000     0.0000000000    51.8285296200      0.0000000000     0.0000000000    -0.0002778700
  O      1.9720000000     0.0000000000    63.2683164900      0.0000000000     0.0000000000     0.0013686400
  O      1.9720000000     0.0000000000    19.1930078000      0.0000000000     0.0000000000    -0.0007551200
  O      1.9720000000     0.0000000000    31.0242124990      0.0000000000     0.0000000000    -0.0001758300
  O      1.9720000000     0.0000000000    42.8602191920      0.0000000000     0.0000000000     0.0000090800
  O      1.9720000000     0.0000000000    54.6900749230      0.0000000000     0.0000000000    -0.0000081800
  O      0.0000000000     1.9720000000    16.2961149850      0.0000000000     0.0000000000    -0.0011445400
  O      0.0000000000     1.9720000000    28.1673523250      0.0000000000     0.0000000000    -0.0000670000
  O      0.0000000000     1.9720000000    40.0035163500      0.0000000000     0.0000000000     0.0002815900
  O      0.0000000000     1.9720000000    51.8383583850      0.0000000000     0.0000000000    -0.0004539400
  O      0.0000000000     1.9720000000    63.3238389450      0.0000000000     0.0000000000     0.0011208900
  O      0.0000000000     1.9720000000    19.1592086050      0.0000000000     0.0000000000    -0.0010452900
  O      0.0000000000     1.9720000000    31.0153832870      0.0000000000     0.0000000000    -0.0001471000
  O      0.0000000000     1.9720000000    42.8519514300      0.0000000000     0.0000000000     0.0000109900
  O      0.0000000000     1.9720000000    54.6772896030      0.0000000000     0.0000000000     0.0000056300
  O      0.0000000000     1.9720000000    23.6765988880      0.0000000000     0.0000000000    -0.0000496100
  O      0.0000000000     1.9720000000    35.5098392020      0.0000000000     0.0000000000     0.0000337500
  O      0.0000000000     1.9720000000    47.3462171610      0.0000000000     0.0000000000    -0.0001920800
  O      0.0000000000     1.9720000000    58.9910722710      0.0000000000     0.0000000000    -0.0000305600
 Sr      1.9720000000     1.9720000000     1.9053312840      0.0000000000     0.0000000000    -0.0000640600
 Sr      1.9720000000     1.9720000000     5.9247695100      0.0000000000     0.0000000000     0.0006153400
 Sr      1.9720000000     1.9720000000     9.8934266670      0.0000000000     0.0000000000     0.0012099300
 Sr      1.9720000000     1.9720000000    13.8609802040      0.0000000000     0.0000000000     0.0036216700
 Ti      0.0000000000     0.0000000000     0.0952992300      0.0000000000     0.0000000000    -0.0006727700
 Ti      0.0000000000     0.0000000000     3.9987602050      0.0000000000     0.0000000000     0.0012458900
 Ti      0.0000000000     0.0000000000     7.9441461030      0.0000000000     0.0000000000     0.0001088300
 Ti      0.0000000000     0.0000000000    11.9329237580      0.0000000000     0.0000000000     0.0042812800
  O      1.9720000000     0.0000000000    -0.0369780760      0.0000000000     0.0000000000    -0.0007514700
  O      1.9720000000     0.0000000000     3.8903415610      0.0000000000     0.0000000000    -0.0000875900
  O      1.9720000000     0.0000000000     7.8403378030      0.0000000000     0.0000000000     0.0012089400
  O      1.9720000000     0.0000000000    11.8315128400      0.0000000000     0.0000000000     0.0004761000
  O      0.0000000000     1.9720000000    -0.0369610940      0.0000000000     0.0000000000    -0.0007539200
  O      0.0000000000     1.9720000000     3.8903531990      0.0000000000     0.0000000000    -0.0000839600
  O      0.0000000000     1.9720000000     7.8403249130      0.0000000000     0.0000000000     0.0012053300
  O      0.0000000000     1.9720000000    11.8308849980      0.0000000000     0.0000000000     0.0004495800
  O      0.0000000000     0.0000000000     1.9084873820      0.0000000000     0.0000000000     0.0003309000
  O      0.0000000000     0.0000000000     5.8640651190      0.0000000000     0.0000000000    -0.0000172900
  O      0.0000000000     0.0000000000     9.8216597560      0.0000000000     0.0000000000     0.0021877700
  O      0.0000000000     0.0000000000    13.8038565990      0.0000000000     0.0000000000     0.0021841100
