CRYSTAL
PRIMVEC
     3.9439985152    0.0000000000    0.0000000000
     0.0000000000    3.9439985152    0.0000000000
     0.0000000000    0.0000000000   78.1319353389
PRIMCOORD
 75 1
 Ba      1.9720000000     1.9720000000    25.8412856360      0.0000000000     0.0000000000    -0.0020528900
 Ba      1.9720000000     1.9720000000    37.6814332450      0.0000000000     0.0000000000    -0.0016236800
 Ba      1.9720000000     1.9720000000    49.5216750780      0.0000000000     0.0000000000    -0.0014700100
 Ba      1.9720000000     1.9720000000    61.4233150180      0.0000000000     0.0000000000     0.0034254700
 Ba      1.9720000000     1.9720000000    21.5155479940      0.0000000000     0.0000000000    -0.0013548900
 Ba      1.9720000000     1.9720000000    33.3596468550      0.0000000000     0.0000000000     0.0012182000
 Ba      1.9720000000     1.9720000000    45.1998505620      0.0000000000     0.0000000000     0.0013821000
 Ba      1.9720000000     1.9720000000    57.0405658960      0.0000000000     0.0000000000     0.0018717300
  Y      1.9720000000     1.9720000000    17.7203105630      0.0000000000     0.0000000000    -0.0012188200
  Y      1.9720000000     1.9720000000    29.6004308750      0.0000000000     0.0000000000    -0.0005359700
  Y      1.9720000000     1.9720000000    41.4406090710      0.0000000000     0.0000000000    -0.0001357600
  Y      1.9720000000     1.9720000000    53.2809612470      0.0000000000     0.0000000000     0.0008867500
 Cu      0.0000000000     0.0000000000    23.6802262440      0.0000000000     0.0000000000     0.0035629600
 Cu      0.0000000000     0.0000000000    35.5205219570      0.0000000000     0.0000000000    -0.0001111900
 Cu      0.0000000000     0.0000000000    47.3607289030      0.0000000000     0.0000000000    -0.0016811300
 Cu      0.0000000000     0.0000000000    59.1929464620      0.0000000000     0.0000000000    -0.0139937300
 Cu      0.0000000000     0.0000000000    16.0218024920      0.0000000000     0.0000000000     0.0068229100
 Cu      0.0000000000     0.0000000000    27.8821621820      0.0000000000     0.0000000000     0.0046917500
 Cu      0.0000000000     0.0000000000    39.7207699710      0.0000000000     0.0000000000     0.0013364100
 Cu      0.0000000000     0.0000000000    51.5612804620      0.0000000000     0.0000000000     0.0004702700
 Cu      0.0000000000     0.0000000000    63.4952594800      0.0000000000     0.0000000000     0.0100204000
 Cu      0.0000000000     0.0000000000    19.4834130420      0.0000000000     0.0000000000     0.0012028000
 Cu      0.0000000000     0.0000000000    31.3196734280      0.0000000000     0.0000000000    -0.0011351500
 Cu      0.0000000000     0.0000000000    43.1571413510      0.0000000000     0.0000000000    -0.0034816900
 Cu      0.0000000000     0.0000000000    55.0033101170      0.0000000000     0.0000000000    -0.0050640800
  O      0.0000000000     0.0000000000    25.5687380950      0.0000000000     0.0000000000    -0.0001758900
  O      0.0000000000     0.0000000000    37.4083468770      0.0000000000     0.0000000000    -0.0006821500
  O      0.0000000000     0.0000000000    49.2483398120      0.0000000000     0.0000000000    -0.0006306600
  O      0.0000000000     0.0000000000    61.0006661690      0.0000000000     0.0000000000    -0.0015104000
  O      0.0000000000     0.0000000000    21.7946700380      0.0000000000     0.0000000000     0.0002708000
  O      0.0000000000     0.0000000000    33.6320038000      0.0000000000     0.0000000000     0.0006672100
  O      0.0000000000     0.0000000000    45.4723988810      0.0000000000     0.0000000000     0.0003051800
  O      0.0000000000     0.0000000000    57.3074124850      0.0000000000     0.0000000000    -0.0017976100
  O      1.9720000000     0.0000000000    16.3381811410      0.0000000000     0.0000000000    -0.0008030000
  O      1.9720000000     0.0000000000    28.1656313900      0.0000000000     0.0000000000     0.0004620400
  O      1.9720000000     0.0000000000    40.0055486100      0.0000000000     0.0000000000    -0.0000435700
  O      1.9720000000     0.0000000000    51.8453626410      0.0000000000     0.0000000000    -0.0004444100
  O      1.9720000000     0.0000000000    63.2720040720      0.0000000000     0.0000000000     0.0016691100
  O      1.9720000000     0.0000000000    19.2063632160      0.0000000000     0.0000000000    -0.0009582900
  O      1.9720000000     0.0000000000    31.0342241590      0.0000000000     0.0000000000    -0.0001449400
  O      1.9720000000     0.0000000000    42.8741884940      0.0000000000     0.0000000000    -0.0006094100
  O      1.9720000000     0.0000000000    54.7136432150      0.0000000000     0.0000000000    -0.0010582200
  O      0.0000000000     1.9720000000    16.3200455320      0.0000000000     0.0000000000    -0.0020910700
  O      0.0000000000     1.9720000000    28.1754189300      0.0000000000     0.0000000000     0.0003691800
  O      0.0000000000     1.9720000000    40.0154392770      0.0000000000     0.0000000000    -0.0001547700
  O      0.0000000000     1.9720000000    51.8555468720      0.0000000000     0.0000000000    -0.0005349400
  O      0.0000000000     1.9720000000    63.3308452610      0.0000000000     0.0000000000     0.0019907700
  O      0.0000000000     1.9720000000    19.1829512030      0.0000000000     0.0000000000    -0.0017933200
  O      0.0000000000     1.9720000000    31.0260663320      0.0000000000     0.0000000000    -0.0001795400
  O      0.0000000000     1.9720000000    42.8659597590      0.0000000000     0.0000000000    -0.0006162800
  O      0.0000000000     1.9720000000    54.7036917950      0.0000000000     0.0000000000    -0.0011605400
  O      0.0000000000     1.9720000000    23.6826045450      0.0000000000     0.0000000000     0.0005711700
  O      0.0000000000     1.9720000000    35.5205656800      0.0000000000     0.0000000000    -0.0001596700
  O      0.0000000000     1.9720000000    47.3607343700      0.0000000000     0.0000000000    -0.0003622900
  O      0.0000000000     1.9720000000    59.1051725190      0.0000000000     0.0000000000    -0.0079797900
 Sr      1.9720000000     1.9720000000     1.9162970070      0.0000000000     0.0000000000    -0.0024609800
 Sr      1.9720000000     1.9720000000     5.9263665110      0.0000000000     0.0000000000    -0.0001111300
 Sr      1.9720000000     1.9720000000     9.8735216510      0.0000000000     0.0000000000     0.0020628100
 Sr      1.9720000000     1.9720000000    13.8187215500      0.0000000000     0.0000000000     0.0066317700
 Ti      0.0000000000     0.0000000000     0.0956384740      0.0000000000     0.0000000000     0.0002271600
 Ti      0.0000000000     0.0000000000     3.9971572900      0.0000000000     0.0000000000     0.0002615400
 Ti      0.0000000000     0.0000000000     7.9361111650      0.0000000000     0.0000000000     0.0005510400
 Ti      0.0000000000     0.0000000000    11.9172119220      0.0000000000     0.0000000000     0.0059492200
  O      1.9720000000     0.0000000000    -0.0355510390      0.0000000000     0.0000000000    -0.0005854500
  O      1.9720000000     0.0000000000     3.8952547870      0.0000000000     0.0000000000    -0.0014645800
  O      1.9720000000     0.0000000000     7.8377578690      0.0000000000     0.0000000000     0.0003723900
  O      1.9720000000     0.0000000000    11.8170620670      0.0000000000     0.0000000000     0.0007417500
  O      0.0000000000     1.9720000000    -0.0355229460      0.0000000000     0.0000000000    -0.0005933300
  O      0.0000000000     1.9720000000     3.8952453650      0.0000000000     0.0000000000    -0.0014605400
  O      0.0000000000     1.9720000000     7.8377588610      0.0000000000     0.0000000000     0.0003700700
  O      0.0000000000     1.9720000000    11.8169432370      0.0000000000     0.0000000000     0.0006946100
  O      0.0000000000     0.0000000000     1.9138499670      0.0000000000     0.0000000000    -0.0005340100
  O      0.0000000000     0.0000000000     5.8648442080      0.0000000000     0.0000000000     0.0008484200
  O      0.0000000000     0.0000000000     9.8147033140      0.0000000000     0.0000000000     0.0008989000
  O      0.0000000000     0.0000000000    13.7876622740      0.0000000000     0.0000000000     0.0021528600
