CRYSTAL
PRIMVEC 1
     3.9297985795    0.0000000000    0.0000000000
     0.0000000000    3.9297985795    0.0000000000
     0.0000000000    0.0000000000   77.1169722464
 PRIMCOORD
75 1
   Sr       1.9648992898     1.9648992898     1.9494991951       0.0000000000     0.0000000000    -0.0214574200
   Sr       1.9648992898     1.9648992898     5.8484979783       0.0000000000     0.0000000000     0.0059498100
   Sr       1.9648992898     1.9648992898     9.7474955825       0.0000000000     0.0000000000     0.0067686900
   Sr       1.9648992898     1.9648992898    13.6464951516       0.0000000000     0.0000000000     0.0088256900
   Ti       0.0000000000     0.0000000000     0.0000000000       0.0000000000     0.0000000000     0.0770891900
   Ti       0.0000000000     0.0000000000    15.5959943467       0.0000000000     0.0000000000     0.0223473200
   Ti       0.0000000000     0.0000000000     3.8989987832       0.0000000000     0.0000000000     0.0208504900
   Ti       0.0000000000     0.0000000000     7.7979971734       0.0000000000     0.0000000000     0.0191353100
   Ti       0.0000000000     0.0000000000    11.6969959565       0.0000000000     0.0000000000     0.0248933100
    O       1.9648992898     0.0000000000     0.0000000000       0.0000000000     0.0000000000    -0.0164818900
    O       1.9648992898     0.0000000000    15.5959943467       0.0000000000     0.0000000000    -0.0213805500
    O       1.9648992898     0.0000000000     3.8989987832       0.0000000000     0.0000000000    -0.0035442500
    O       1.9648992898     0.0000000000     7.7979971734       0.0000000000     0.0000000000    -0.0051957800
    O       1.9648992898     0.0000000000    11.6969959565       0.0000000000     0.0000000000    -0.0061210700
    O       0.0000000000     1.9648992898     0.0000000000       0.0000000000     0.0000000000    -0.0165033300
    O       0.0000000000     1.9648992898    15.5959943467       0.0000000000     0.0000000000    -0.0213147900
    O       0.0000000000     1.9648992898     3.8989987832       0.0000000000     0.0000000000    -0.0035415100
    O       0.0000000000     1.9648992898     7.7979971734       0.0000000000     0.0000000000    -0.0051896300
    O       0.0000000000     1.9648992898    11.6969959565       0.0000000000     0.0000000000    -0.0061288000
    O       0.0000000000     0.0000000000     1.9494991951       0.0000000000     0.0000000000    -0.0466527900
    O       0.0000000000     0.0000000000     5.8484979783       0.0000000000     0.0000000000    -0.0175887200
    O       0.0000000000     0.0000000000     9.7474955825       0.0000000000     0.0000000000    -0.0170664600
    O       0.0000000000     0.0000000000    13.6464951516       0.0000000000     0.0000000000    -0.0359179400
   Ba       1.9648992898     1.9648992898    17.7243374963       0.0000000000     0.0000000000    -0.0168468800
   Ba       1.9648992898     1.9648992898    29.3546321955       0.0000000000     0.0000000000    -0.0029725600
   Ba       1.9648992898     1.9648992898    40.9849280738       0.0000000000     0.0000000000    -0.0032172900
   Ba       1.9648992898     1.9648992898    52.6152270959       0.0000000000     0.0000000000    -0.0030792000
   Ba       1.9648992898     1.9648992898    25.0979451106       0.0000000000     0.0000000000     0.0023296400
   Ba       1.9648992898     1.9648992898    36.7282425607       0.0000000000     0.0000000000     0.0027026300
   Ba       1.9648992898     1.9648992898    48.3585333302       0.0000000000     0.0000000000     0.0027882300
   Ba       1.9648992898     1.9648992898    59.9888311733       0.0000000000     0.0000000000     0.0193138800
    Y       1.9648992898     1.9648992898    21.4111420894       0.0000000000     0.0000000000    -0.0048409900
    Y       1.9648992898     1.9648992898    33.0414391465       0.0000000000     0.0000000000    -0.0000264500
    Y       1.9648992898     1.9648992898    44.6717326669       0.0000000000     0.0000000000    -0.0004262600
    Y       1.9648992898     1.9648992898    56.3020277592       0.0000000000     0.0000000000    -0.0024155200
   Cu       0.0000000000     0.0000000000    62.1171766807       0.0000000000     0.0000000000    -0.0140344000
   Cu       0.0000000000     0.0000000000    27.2262890460       0.0000000000     0.0000000000    -0.0003413500
   Cu       0.0000000000     0.0000000000    38.8565841383       0.0000000000     0.0000000000     0.0000729400
   Cu       0.0000000000     0.0000000000    50.4868815885       0.0000000000     0.0000000000     0.0014658100
   Cu       0.0000000000     0.0000000000    19.7166090121       0.0000000000     0.0000000000    -0.0035287800
   Cu       0.0000000000     0.0000000000    31.3469025324       0.0000000000     0.0000000000     0.0002274200
   Cu       0.0000000000     0.0000000000    42.9771995896       0.0000000000     0.0000000000     0.0046458800
   Cu       0.0000000000     0.0000000000    54.6074931100       0.0000000000     0.0000000000     0.0007791000
   Cu       0.0000000000     0.0000000000    23.1056755596       0.0000000000     0.0000000000    -0.0030074200
   Cu       0.0000000000     0.0000000000    34.7359726168       0.0000000000     0.0000000000    -0.0000181700
   Cu       0.0000000000     0.0000000000    46.3662661372       0.0000000000     0.0000000000     0.0006111600
   Cu       0.0000000000     0.0000000000    57.9965612294       0.0000000000     0.0000000000    -0.0017938100
    O       0.0000000000     0.0000000000    17.4475378105       0.0000000000     0.0000000000     0.0638740100
    O       0.0000000000     0.0000000000    29.0778325098       0.0000000000     0.0000000000     0.0122618900
    O       0.0000000000     0.0000000000    40.7081264232       0.0000000000     0.0000000000     0.0122846900
    O       0.0000000000     0.0000000000    52.3384211224       0.0000000000     0.0000000000     0.0122712100
    O       0.0000000000     0.0000000000    25.3747467612       0.0000000000     0.0000000000    -0.0122213300
    O       0.0000000000     0.0000000000    37.0050406745       0.0000000000     0.0000000000    -0.0121060500
    O       0.0000000000     0.0000000000    48.6353393036       0.0000000000     0.0000000000    -0.0116890500
    O       0.0000000000     0.0000000000    60.2656343959       0.0000000000     0.0000000000    -0.0280476200
    O       1.9648992898     0.0000000000    19.9736367022       0.0000000000     0.0000000000     0.0124776800
    O       1.9648992898     0.0000000000    31.6039337594       0.0000000000     0.0000000000     0.0047384000
    O       1.9648992898     0.0000000000    43.2342292446       0.0000000000     0.0000000000     0.0051354700
    O       1.9648992898     0.0000000000    54.8645243369       0.0000000000     0.0000000000     0.0063414000
    O       1.9648992898     0.0000000000    22.8486459046       0.0000000000     0.0000000000    -0.0032893100
    O       1.9648992898     0.0000000000    34.4789413899       0.0000000000     0.0000000000    -0.0048876200
    O       1.9648992898     0.0000000000    46.1092364821       0.0000000000     0.0000000000    -0.0046919100
    O       1.9648992898     0.0000000000    57.7395311814       0.0000000000     0.0000000000    -0.0014152500
    O       0.0000000000     1.9648992898    19.9841048997       0.0000000000     0.0000000000     0.0093715700
    O       0.0000000000     1.9648992898    31.6144003849       0.0000000000     0.0000000000     0.0048511500
    O       0.0000000000     1.9648992898    43.2446974421       0.0000000000     0.0000000000     0.0052365700
    O       0.0000000000     1.9648992898    54.8749913554       0.0000000000     0.0000000000     0.0052149000
    O       0.0000000000     1.9648992898    22.8381777072       0.0000000000     0.0000000000    -0.0043065600
    O       0.0000000000     1.9648992898    34.4684743713       0.0000000000     0.0000000000    -0.0049473000
    O       0.0000000000     1.9648992898    46.0987682847       0.0000000000     0.0000000000    -0.0047700500
    O       0.0000000000     1.9648992898    57.7290629840       0.0000000000     0.0000000000    -0.0012801700
    O       0.0000000000     1.9648992898    62.1171766807       0.0000000000     0.0000000000     0.0191760800
    O       0.0000000000     1.9648992898    27.2262890460       0.0000000000     0.0000000000     0.0000739500
    O       0.0000000000     1.9648992898    38.8565841383       0.0000000000     0.0000000000     0.0000471200
    O       0.0000000000     1.9648992898    50.4868815885       0.0000000000     0.0000000000     0.0001336400
