CRYSTAL
PRIMVEC
     3.9297985795    0.0000000000    0.0000000000
     0.0000000000    3.9297985795    0.0000000000
     0.0000000000    0.0000000000   77.1169983246
PRIMCOORD
 75 1
 Sr      1.9649000000     1.9649000000     1.9190412410      0.0000000000     0.0000000000    -0.0077515600
 Sr      1.9649000000     1.9649000000     5.8554881110      0.0000000000     0.0000000000     0.0027917300
 Sr      1.9649000000     1.9649000000     9.7565141020      0.0000000000     0.0000000000     0.0040232800
 Sr      1.9649000000     1.9649000000    13.6560970850      0.0000000000     0.0000000000     0.0053823800
 Ti      0.0000000000     0.0000000000     0.0710836280      0.0000000000     0.0000000000     0.0078511400
 Ti      0.0000000000     0.0000000000    15.6564574340      0.0000000000     0.0000000000     0.0020956600
 Ti      0.0000000000     0.0000000000     3.9481053510      0.0000000000     0.0000000000     0.0034878100
 Ti      0.0000000000     0.0000000000     7.8427654130      0.0000000000     0.0000000000    -0.0018172900
 Ti      0.0000000000     0.0000000000    11.7405593670      0.0000000000     0.0000000000    -0.0000713300
  O      1.9649000000     0.0000000000    -0.0494020330      0.0000000000     0.0000000000    -0.0035505000
  O      1.9649000000     0.0000000000    15.5338731470      0.0000000000     0.0000000000     0.0021585700
  O      1.9649000000     0.0000000000     3.8522010390      0.0000000000     0.0000000000    -0.0027362500
  O      1.9649000000     0.0000000000     7.7455957140      0.0000000000     0.0000000000    -0.0002590100
  O      1.9649000000     0.0000000000    11.6427817380      0.0000000000     0.0000000000     0.0001170300
  O      0.0000000000     1.9649000000    -0.0494029990      0.0000000000     0.0000000000    -0.0035477200
  O      0.0000000000     1.9649000000    15.5340428050      0.0000000000     0.0000000000     0.0020848600
  O      0.0000000000     1.9649000000     3.8521828720      0.0000000000     0.0000000000    -0.0027388700
  O      0.0000000000     1.9649000000     7.7455886370      0.0000000000     0.0000000000    -0.0002609700
  O      0.0000000000     1.9649000000    11.6427664810      0.0000000000     0.0000000000     0.0001190200
  O      0.0000000000     0.0000000000     1.8964916530      0.0000000000     0.0000000000    -0.0105019200
  O      0.0000000000     0.0000000000     5.8004259530      0.0000000000     0.0000000000     0.0005039000
  O      0.0000000000     0.0000000000     9.7013669440      0.0000000000     0.0000000000    -0.0014439000
  O      0.0000000000     0.0000000000    13.5995941650      0.0000000000     0.0000000000    -0.0008623000
 Ba      1.9649000000     1.9649000000    17.7134679780      0.0000000000     0.0000000000    -0.0036411000
 Ba      1.9649000000     1.9649000000    29.3525374280      0.0000000000     0.0000000000    -0.0011747600
 Ba      1.9649000000     1.9649000000    40.9828514540      0.0000000000     0.0000000000    -0.0011575800
 Ba      1.9649000000     1.9649000000    52.6130772320      0.0000000000     0.0000000000    -0.0014577200
 Ba      1.9649000000     1.9649000000    25.0992629990      0.0000000000     0.0000000000     0.0005136500
 Ba      1.9649000000     1.9649000000    36.7303338020      0.0000000000     0.0000000000     0.0015048700
 Ba      1.9649000000     1.9649000000    48.3606777530      0.0000000000     0.0000000000     0.0017049900
 Ba      1.9649000000     1.9649000000    60.0040931990      0.0000000000     0.0000000000     0.0112940500
  Y      1.9649000000     1.9649000000    21.4082754660      0.0000000000     0.0000000000     0.0016909600
  Y      1.9649000000     1.9649000000    33.0414814760      0.0000000000     0.0000000000     0.0004846200
  Y      1.9649000000     1.9649000000    44.6717768630      0.0000000000     0.0000000000     0.0003676500
  Y      1.9649000000     1.9649000000    56.3009889050      0.0000000000     0.0000000000     0.0010681500
 Cu      0.0000000000     0.0000000000    62.0837712630      0.0000000000     0.0000000000    -0.0173820500
 Cu      0.0000000000     0.0000000000    27.2263833320      0.0000000000     0.0000000000     0.0005864300
 Cu      0.0000000000     0.0000000000    38.8566512330      0.0000000000     0.0000000000     0.0000843300
 Cu      0.0000000000     0.0000000000    50.4867406050      0.0000000000     0.0000000000    -0.0014283000
 Cu      0.0000000000     0.0000000000    19.7171146420      0.0000000000     0.0000000000     0.0120046500
 Cu      0.0000000000     0.0000000000    31.3474574600      0.0000000000     0.0000000000     0.0001382600
 Cu      0.0000000000     0.0000000000    42.9774423020      0.0000000000     0.0000000000    -0.0007070800
 Cu      0.0000000000     0.0000000000    54.6075840340      0.0000000000     0.0000000000    -0.0002805200
 Cu      0.0000000000     0.0000000000    23.1053070940      0.0000000000     0.0000000000    -0.0021520500
 Cu      0.0000000000     0.0000000000    34.7357669660      0.0000000000     0.0000000000    -0.0017040400
 Cu      0.0000000000     0.0000000000    46.3658318300      0.0000000000     0.0000000000    -0.0029856900
 Cu      0.0000000000     0.0000000000    57.9965053870      0.0000000000     0.0000000000    -0.0008344500
  O      0.0000000000     0.0000000000    17.5387725600      0.0000000000     0.0000000000     0.0010937700
  O      0.0000000000     0.0000000000    29.1082318980      0.0000000000     0.0000000000    -0.0005050000
  O      0.0000000000     0.0000000000    40.7363869390      0.0000000000     0.0000000000     0.0000250300
  O      0.0000000000     0.0000000000    52.3685089550      0.0000000000     0.0000000000     0.0009260600
  O      0.0000000000     0.0000000000    25.3480007150      0.0000000000     0.0000000000     0.0009497900
  O      0.0000000000     0.0000000000    36.9770163430      0.0000000000     0.0000000000     0.0002573300
  O      0.0000000000     0.0000000000    48.6075275310      0.0000000000     0.0000000000    -0.0001686500
  O      0.0000000000     0.0000000000    60.1813951370      0.0000000000     0.0000000000    -0.0006739800
  O      1.9649000000     0.0000000000    20.0299815580      0.0000000000     0.0000000000    -0.0003533700
  O      1.9649000000     0.0000000000    31.6234912420      0.0000000000     0.0000000000    -0.0002577100
  O      1.9649000000     0.0000000000    43.2525597220      0.0000000000     0.0000000000    -0.0003024900
  O      1.9649000000     0.0000000000    54.8939902680      0.0000000000     0.0000000000    -0.0003231200
  O      1.9649000000     0.0000000000    22.8445733590      0.0000000000     0.0000000000     0.0019458700
  O      1.9649000000     0.0000000000    34.4619497720      0.0000000000     0.0000000000     0.0001741600
  O      1.9649000000     0.0000000000    46.0913128720      0.0000000000     0.0000000000     0.0002647200
  O      1.9649000000     0.0000000000    57.7371635300      0.0000000000     0.0000000000     0.0017890700
  O      0.0000000000     1.9649000000    20.0182993910      0.0000000000     0.0000000000    -0.0012965900
  O      0.0000000000     1.9649000000    31.6343163170      0.0000000000     0.0000000000    -0.0002858500
  O      0.0000000000     1.9649000000    43.2632643530      0.0000000000     0.0000000000    -0.0003235500
  O      0.0000000000     1.9649000000    54.8993074980      0.0000000000     0.0000000000     0.0001896700
  O      0.0000000000     1.9649000000    22.8276426450      0.0000000000     0.0000000000     0.0001902900
  O      0.0000000000     1.9649000000    34.4513716350      0.0000000000     0.0000000000     0.0002219400
  O      0.0000000000     1.9649000000    46.0805954490      0.0000000000     0.0000000000     0.0002526400
  O      0.0000000000     1.9649000000    57.7276407430      0.0000000000     0.0000000000     0.0020657200
  O      0.0000000000     1.9649000000    62.2331301670      0.0000000000     0.0000000000     0.0014124000
  O      0.0000000000     1.9649000000    27.2287994210      0.0000000000     0.0000000000     0.0006492600
  O      0.0000000000     1.9649000000    38.8568966520      0.0000000000     0.0000000000     0.0001578700
  O      0.0000000000     1.9649000000    50.4872888920      0.0000000000     0.0000000000     0.0003136700
