CRYSTAL
PRIMVEC 1
     3.9439985152    0.0000000000    0.0000000000
     0.0000000000    3.9439985152    0.0000000000
     0.0000000000    0.0000000000   25.5742983238
 PRIMCOORD
21 1
   Ba       1.9719992576     1.9719992576     6.0723422123       0.0000000000     0.0000000000    -0.0179843500
   Ba       1.9719992576     1.9719992576    13.4459499411       0.0000000000     0.0000000000     0.0208149000
    Y       1.9719992576     1.9719992576     9.7591454851       0.0000000000     0.0000000000    -0.0106720000
   Cu       0.0000000000     0.0000000000    15.5743031038       0.0000000000     0.0000000000    -0.0120057100
   Cu       0.0000000000     0.0000000000     8.0646124390       0.0000000000     0.0000000000     0.0009478900
   Cu       0.0000000000     0.0000000000    11.4536797143       0.0000000000     0.0000000000    -0.0051916300
    O       0.0000000000     0.0000000000     5.7955421421       0.0000000000     0.0000000000     0.0505945400
    O       0.0000000000     0.0000000000    13.7227515888       0.0000000000     0.0000000000    -0.0270604500
    O       0.0000000000     0.0000000000     1.9719992576       0.0000000000     0.0000000000    -0.0889338200
    O       1.9719992576     0.0000000000     8.3216420335       0.0000000000     0.0000000000     0.0142562000
    O       1.9719992576     0.0000000000    11.1966509087       0.0000000000     0.0000000000     0.0002093700
    O       1.9719992576     0.0000000000     0.0000000000       0.0000000000     0.0000000000    -0.0218897700
    O       1.9719992576     0.0000000000     3.9439989096       0.0000000000     0.0000000000    -0.0270465900
    O       0.0000000000     1.9719992576     0.0000000000       0.0000000000     0.0000000000    -0.0218867700
    O       0.0000000000     1.9719992576     3.9439989096       0.0000000000     0.0000000000    -0.0269865400
    O       0.0000000000     1.9719992576     8.3321097999       0.0000000000     0.0000000000     0.0107672300
    O       0.0000000000     1.9719992576    11.1861835366       0.0000000000     0.0000000000     0.0001923400
    O       0.0000000000     1.9719992576    15.5743031038       0.0000000000     0.0000000000     0.0197061000
   Sr       1.9719992576     1.9719992576     1.9719992576       0.0000000000     0.0000000000    -0.0037510400
   Ti       0.0000000000     0.0000000000     0.0000000000       0.0000000000     0.0000000000     0.1050490600
   Ti       0.0000000000     0.0000000000     3.9439989096       0.0000000000     0.0000000000     0.0408710500
