CRYSTAL
PRIMVEC
     3.9439985152    0.0000000000    0.0000000000
     0.0000000000    3.9439985152    0.0000000000
     0.0000000000    0.0000000000   25.5677294049
PRIMCOORD
 21 1
 Ba      1.9719992576     1.9719992576     6.0306147986      0.0000000000     0.0000000000    -0.0005754800
 Ba      1.9719992576     1.9719992576    13.5109973247      0.0000000000     0.0000000000     0.0005979700
  Y      1.9719992576     1.9719992576     9.7605920478      0.0000000000     0.0000000000     0.0019577700
 Cu      0.0000000000     0.0000000000    15.4768913201      0.0000000000     0.0000000000    -0.0067751000
 Cu      0.0000000000     0.0000000000     8.0931419250      0.0000000000     0.0000000000     0.0051939400
 Cu      0.0000000000     0.0000000000    11.4538193253      0.0000000000     0.0000000000    -0.0023329800
  O      0.0000000000     0.0000000000     5.8594430178      0.0000000000     0.0000000000     0.0006600700
  O      0.0000000000     0.0000000000    13.6012339979      0.0000000000     0.0000000000    -0.0026809900
  O      0.0000000000     0.0000000000     1.8777683218      0.0000000000     0.0000000000    -0.0000060700
  O      1.9719992576     0.0000000000     8.3885001561      0.0000000000     0.0000000000     0.0010566600
  O      1.9719992576     0.0000000000    11.2182933139      0.0000000000     0.0000000000     0.0009051800
  O      1.9719992576     0.0000000000    -0.0738881556      0.0000000000     0.0000000000     0.0002135900
  O      1.9719992576     0.0000000000     3.8547734387      0.0000000000     0.0000000000     0.0007036000
  O      0.0000000000     1.9719992576    -0.0739136467      0.0000000000     0.0000000000     0.0002061400
  O      0.0000000000     1.9719992576     3.8545575448      0.0000000000     0.0000000000     0.0006310300
  O      0.0000000000     1.9719992576     8.3686124256      0.0000000000     0.0000000000     0.0010061900
  O      0.0000000000     1.9719992576    11.1973000092      0.0000000000     0.0000000000     0.0006223300
  O      0.0000000000     1.9719992576    15.6420804823      0.0000000000     0.0000000000    -0.0016810500
 Sr      1.9719992576     1.9719992576     1.9010434440      0.0000000000     0.0000000000    -0.0001752300
 Ti      0.0000000000     0.0000000000     0.0701320005      0.0000000000     0.0000000000     0.0006268500
 Ti      0.0000000000     0.0000000000     3.9941395777      0.0000000000     0.0000000000    -0.0001544400
